opendss_model/13bus-icore/IEEE13Node_iCOREV2.dss
Clear 

! Created by Kohei Murakami (k1murakami@ucsd.edu), March 13, 2023
! Based on RTDS-provided IEEE 13 bus system information and OpenDSS's example case.

new circuit.IEEE13Nodeckt 
~ basekv=4.16 pu=1.000 phases=3 bus1=650 R1=0.0001 X1=0.0001

! FEEDER 1-PHASE VOLTAGE REGULATORS
! Define low-impedance 2-wdg transformer

!TRANSFORMER DEFINITION 
New Transformer.XFM1  Phases=3   Windings=2  XHL=2
~ wdg=1 bus=633       conn=Wye kv=4.16    kva=500    %r=.55     XHT=1
~ wdg=2 bus=634       conn=Wye kv=0.480    kva=500    %r=.55   XLT=1


!LINE CODES

New linecode.mtx601 nphases=3 BaseFreq=60 units=mi 
~ r1=0.1860 r0=0.6535
~ x1=0.5968 x0=1.9069
~ c1=2.6115 c0=7.9127
New linecode.mtx602 nphases=3 BaseFreq=60 units=mi 
~ r1=0.5921 r0=1.0596
~ x1=0.7602 x0=2.0704
~ c1=2.6571 c0=7.2076
New linecode.mtx603 nphases=3 BaseFreq=60 units=mi 
~ r1=1.1191 r0=1.7389
~ x1=0.8945 x0=2.2716
~ c1=3.8206 c0=7.4012
New linecode.mtx604 nphases=3 BaseFreq=60 units=mi 
~ r1=1.1209 r0=1.7407
~ x1=0.8911 x0=2.2685
~ c1=3.8400 c0=7.4206
New linecode.mtx605 nphases=3 BaseFreq=60 units=mi 
~ r1=3.5800 r0=3.5800
~ x1=1.3662 x0=1.3662
~ c1=629.4834 c0=629.4834
New linecode.mtx606 nphases=3 BaseFreq=60 units=mi 
~ r1=0.2295 r0=1.4476
~ x1=0.4057 x0=0.4853 
~ c1=121.4361 c0=142.6409
New Linecode.mtx607 nphases=3 BaseFreq=60 units=mi 
~ r1=0.4984 r0=0.4984
~ x1=0.5053  x0=0.5053
~ c1=4.4953  c0=4.4953


!LOAD DEFINITIONS 
New Load.671 Bus1=671.1.2.3    Phases=3 Conn=Delta Model=1 kV=4.16    kW=1155  kvar=660 vminpu=0.9
New Load.634 Bus1=634.1.2.3    Phases=3 Conn=Wye  Model=1 kV=0.48  kW=400    kvar=290 vminpu=0.9
New Load.645 Bus1=645.1.2.3    Phases=3 Conn=Wye  Model=1 kV=4.16      kW=170    kvar=125 vminpu=0.9
New Load.646 Bus1=646.1.2.3    Phases=3 Conn=Delta Model=1 kV=4.16    kW=230    kvar=132 vminpu=0.9
New Load.692 Bus1=692.1.2.3    Phases=3 Conn=Delta Model=1 kV=4.16    kW=170   kvar=151 vminpu=0.9
New Load.675 Bus1=675.1.2.3    Phases=3 Conn=Wye  Model=1 kV=4.16  kW=843   kvar=462 vminpu=0.9
New Load.670 Bus1=670.1.2.3    Phases=3 Conn=Wye  Model=1 kV=4.16  kW=200    kvar=116 vminpu=0.9
New Load.611 Bus1=611.1.2.3    Phases=3 Conn=Wye  Model=1 kV=4.16  kW=170   kvar=80 vminpu=0.9
New Load.652 Bus1=652.1.2.3    Phases=3 Conn=Wye  Model=1 kV=4.16  kW=128   kvar=86 vminpu=0.9

!CAPACITOR DEFINITIONS
!New Capacitor.Cap1 Bus1=675 phases=3 kVAR=600 kV=4.16 
!New Capacitor.Cap2 Bus1=611 phases=3 kVAR=100 kV=4.16 


!LINE DEFINITIONS 

New Line.650632    Phases=3 Bus1=650.1.2.3   Bus2=632.1.2.3  LineCode=mtx601 Length=2000 units=ft 
New Line.632670    Phases=3 Bus1=632.1.2.3      Bus2=670.1.2.3  LineCode=mtx601 Length=667  units=ft    
New Line.670671    Phases=3 Bus1=670.1.2.3      Bus2=671.1.2.3  LineCode=mtx601 Length=1333 units=ft 
New Line.671680    Phases=3 Bus1=671.1.2.3      Bus2=680.1.2.3  LineCode=mtx601 Length=1000 units=ft 
New Line.632633    Phases=3 Bus1=632.1.2.3      Bus2=633.1.2.3  LineCode=mtx602 Length=500  units=ft 
New Line.632645    Phases=3 Bus1=632.1.2.3      Bus2=645.1.2.3  LineCode=mtx603 Length=500  units=ft 
New Line.645646    Phases=3 Bus1=645.1.2.3      Bus2=646.1.2.3  LineCode=mtx603 Length=300  units=ft 
New Line.692675    Phases=3 Bus1=692.1.2.3      Bus2=675.1.2.3  LineCode=mtx606 Length=500  units=ft 
New Line.671684    Phases=3 Bus1=671.1.2.3      Bus2=684.1.2.3  LineCode=mtx604 Length=300  units=ft 
New Line.684611    Phases=1 Bus1=684.1.2.3      Bus2=611.1.2.3  LineCode=mtx605 Length=300  units=ft 
New Line.684652    Phases=3 Bus1=684.1.2.3      Bus2=652.1.2.3  LineCode=mtx607 Length=800  units=ft 


!SWITCH DEFINITIONS 
New Line.671692    Phases=3 Bus1=671   Bus2=692  Switch=y  r1=1e-4 r0=1e-4 x1=0.000 x0=0.000 c1=0.000 c0=0.000

Set Voltagebases=[4.16, .48]
calcv
!BusCoords IEEE13Node_BusXY.csv

!Set Controlmode=OFF

Solve
